<!--
    Monaco SUMO Traffic (MoST) Scenario
    Copyright (C) 2019
    Lara CODECA

    This program is free software: you can redistribute it and/or modify
    it under the terms of the GNU General Public License as published by
    the Free Software Foundation, either version 3 of the License, or
    (at your option) any later version.

    This program is distributed in the hope that it will be useful,
    but WITHOUT ANY WARRANTY; without even the implied warranty of
    MERCHANTABILITY or FITNESS FOR A PARTICULAR PURPOSE.  See the
    GNU General Public License for more details.

    You should have received a copy of the GNU General Public License
    along with this program.  If not, see <http://www.gnu.org/licenses/>.
-->
<routes>
  <!-- Public Transports -->
  <vType vClass="bus"  id="bus"   maxSpeed="0.5" personCapacity="50" latAlignment="center" tau="1.5" speedDev="0" lcCooperative="0.0" accel="0.01" decel="1.0">
    <param key="has.rerouting.device" value="false"/>
  </vType>
  <vType vClass="rail" id="train" maxSpeed="0.5" personCapacity="500">
    <param key="has.rerouting.device" value="false"/>
  </vType>

  <vTypeDistribution id="on-demand">
    <vType vClass="taxi"       id="taxi"  maxSpeed="0.5" personCapacity="4" latAlignment="center" probability=".50" tau="1.5" speedDev="0" accel="0.01" decel="1.0"/>
    <vType vClass="passenger"  id="uber"  maxSpeed="0.5" personCapacity="8" latAlignment="center" probability=".50" tau="1.5" speedDev="0" accel="0.01" decel="1.0"/>
  </vTypeDistribution>

  <!-- Vulnerable Road Users -->
  <vTypeDistribution id="pedestrian">
    <vType vClass="pedestrian"   id="slowpedestrian"  maxSpeed="0.5" latAlignment="compact" probability=".33" tau="1.5" minGap="0.1" accel="0.01" decel="1.0"/>
    <vType vClass="pedestrian"   id="avgpedestrian"   maxSpeed="0.5" latAlignment="compact" probability=".33" tau="1.5" minGap="0.1" accel="0.01" decel="1.0"/>
    <vType vClass="pedestrian"   id="fastpedestrian"  maxSpeed="0.5" latAlignment="compact" probability=".33" tau="1.5" minGap="0.1" accel="0.01" decel="1.0"/>
  </vTypeDistribution>
  <vTypeDistribution id="bicycle">
    <vType vClass="bicycle"      id="slowbicycle"     maxSpeed="0.5" latAlignment="compact" probability=".33" tau="1.5" minGap="0.1" accel="0.01" decel="1.0"/>
    <vType vClass="bicycle"      id="avgbicycle"      maxSpeed="0.5" latAlignment="compact" probability=".33" tau="1.5" minGap="0.1" accel="0.01" decel="1.0"/>
    <vType vClass="bicycle"      id="fastbicycle"     maxSpeed="0.5" latAlignment="compact" probability=".33" tau="1.5" minGap="0.1" accel="0.01" decel="1.0"/>
  </vTypeDistribution>

  <!-- Normal vehicles -->
  <vTypeDistribution id="ptw">
    <vType vClass="motorcycle" id="motorcycle"  maxSpeed="0.5" personCapacity="2" latAlignment="arbitrary" lcPushy="1.0" minGapLat="0.5" probability=".70" tau="1.5" speedDev="0" accel="0.01" decel="1.0"/>
    <vType vClass="moped"      id="moped"       maxSpeed="0.5" personCapacity="1" latAlignment="arbitrary" lcPushy="1.0" minGapLat="0.5" probability=".30" tau="1.5" speedDev="0" accel="0.01" decel="1.0"/>
  </vTypeDistribution>
  <vTypeDistribution id="passenger">
    <vType vClass="passenger"  id="passenger1"  maxSpeed="0.5" personCapacity="4" latAlignment="center" sigma="0.25" probability=".20" tau="1.5" speedDev="0" guiShape="passenger" accel="0.01" decel="1.0"/>
    <vType vClass="passenger"  id="passenger2a" maxSpeed="0.5" personCapacity="4" latAlignment="center" sigma="0.30" probability=".20" tau="1.5" speedDev="0" guiShape="passenger/sedan" accel="0.01" decel="1.0"/>
    <vType vClass="passenger"  id="passenger2b" maxSpeed="0.5" personCapacity="4" latAlignment="center" sigma="0.35" probability=".20" tau="1.5" speedDev="0" guiShape="passenger/hatchback" accel="0.01" decel="1.0"/>
    <vType vClass="passenger"  id="passenger3"  maxSpeed="0.5" personCapacity="6" latAlignment="center" sigma="0.40" probability=".20" tau="1.5" speedDev="0" guiShape="passenger/wagon" accel="0.01" decel="1.0"/>
    <vType vClass="passenger"  id="passenger4"  maxSpeed="0.5" personCapacity="6" latAlignment="center" sigma="0.50" probability=".20" tau="1.5" speedDev="0" guiShape="passenger/van" accel="0.01" decel="1.0"/>
  </vTypeDistribution>

  <!-- Special vehicles -->
  <vTypeDistribution id="special">
    <vType vClass="emergency" id="emergency" maxSpeed="0.5" latAlignment="center" probability=".60" tau="1.5" speedDev="0" accel="0.01" decel="1.0"/>
    <vType vClass="authority" id="authority" maxSpeed="0.5" latAlignment="center" probability=".39" tau="1.5" speedDev="0" accel="0.01" decel="1.0"/>
    <vType vClass="army"      id="army"      maxSpeed="0.5" latAlignment="center" probability=".01" tau="1.5" speedDev="0" accel="0.01" decel="1.0"/>
  </vTypeDistribution>

  <!-- Other vehicles -->
  <vTypeDistribution id="commercial">
    <vType vClass="delivery"   id="delivery"    maxSpeed="0.5" containerCapacity="15" latAlignment="center" probability=".75" tau="1.5" speedDev="0" lcCooperative="0.0" accel="0.01" decel="1.0"/>
    <vType vClass="truck"      id="truck"       maxSpeed="0.5" containerCapacity="5"  latAlignment="center" probability=".05" tau="1.5" speedDev="0" lcCooperative="0.0" accel="0.01" decel="1.0"/>
    <vType vClass="trailer"    id="trailer"     maxSpeed="0.5" containerCapacity="5"  latAlignment="center" probability=".10" tau="1.5" speedDev="0" lcCooperative="0.0" accel="0.01" decel="1.0"/>
    <vType vClass="coach"      id="coach"       maxSpeed="0.5" containerCapacity="50" latAlignment="center" probability=".10" tau="1.5" speedDev="0" lcCooperative="0.0" accel="0.01" decel="1.0"/>
  </vTypeDistribution>

  <vType vClass="evehicle"     id="evehicle"    maxSpeed="0.5" personCapacity="4"     latAlignment="center" tau="1.5" speedDev="0" accel="0.01" decel="1.0"/>
</routes>
